[root]
type=Root
children=system
eventq_index=0
full_system=false
sim_quantum=0
time_sync_enable=false
time_sync_period=100000000000
time_sync_spin_threshold=100000000

[system]
type=System
children=clk_domain cpu0 cpu1 cpu2 cpu3 cpu_clk_domain cpu_voltage_domain dvfs_handler mem_ctrls membus voltage_domain
boot_osflags=a
cache_line_size=64
clk_domain=system.clk_domain
eventq_index=0
init_param=0
kernel=
kernel_addr_check=true
load_addr_mask=1099511627775
load_offset=0
mem_mode=atomic
mem_ranges=0:536870911
memories=system.mem_ctrls
num_work_ids=16
readfile=
symbolfile=
work_begin_ckpt_count=0
work_begin_cpu_id_exit=-1
work_begin_exit_count=0
work_cpus_ckpt_count=0
work_end_ckpt_count=0
work_end_exit_count=0
work_item_id=-1
system_port=system.membus.slave[0]

[system.clk_domain]
type=SrcClockDomain
clock=1000
domain_id=-1
eventq_index=0
init_perf_level=0
voltage_domain=system.voltage_domain

[system.cpu0]
type=AtomicSimpleCPU
children=dstage2_mmu dtb interrupts isa istage2_mmu itb tracer workload
branchPred=Null
checker=Null
clk_domain=system.cpu_clk_domain
cpu_id=0
do_checkpoint_insts=true
do_quiesce=true
do_statistics_insts=true
dstage2_mmu=system.cpu0.dstage2_mmu
dtb=system.cpu0.dtb
eventq_index=0
fastmem=false
function_trace=false
function_trace_start=0
interrupts=system.cpu0.interrupts
isa=system.cpu0.isa
istage2_mmu=system.cpu0.istage2_mmu
itb=system.cpu0.itb
max_insts_all_threads=0
max_insts_any_thread=0
max_loads_all_threads=0
max_loads_any_thread=0
numThreads=1
profile=0
progress_interval=0
simpoint_start_insts=
simulate_data_stalls=false
simulate_inst_stalls=false
socket_id=0
switched_out=false
system=system
tracer=system.cpu0.tracer
width=1
workload=system.cpu0.workload
dcache_port=system.membus.slave[2]
icache_port=system.membus.slave[1]

[system.cpu0.dstage2_mmu]
type=ArmStage2MMU
children=stage2_tlb
eventq_index=0
stage2_tlb=system.cpu0.dstage2_mmu.stage2_tlb
tlb=system.cpu0.dtb

[system.cpu0.dstage2_mmu.stage2_tlb]
type=ArmTLB
children=walker
eventq_index=0
is_stage2=true
size=32
walker=system.cpu0.dstage2_mmu.stage2_tlb.walker

[system.cpu0.dstage2_mmu.stage2_tlb.walker]
type=ArmTableWalker
clk_domain=system.cpu_clk_domain
eventq_index=0
is_stage2=true
num_squash_per_cycle=2
sys=system
port=system.membus.slave[6]

[system.cpu0.dtb]
type=ArmTLB
children=walker
eventq_index=0
is_stage2=false
size=64
walker=system.cpu0.dtb.walker

[system.cpu0.dtb.walker]
type=ArmTableWalker
clk_domain=system.cpu_clk_domain
eventq_index=0
is_stage2=false
num_squash_per_cycle=2
sys=system
port=system.membus.slave[4]

[system.cpu0.interrupts]
type=ArmInterrupts
eventq_index=0

[system.cpu0.isa]
type=ArmISA
eventq_index=0
fpsid=1090793632
id_aa64afr0_el1=0
id_aa64afr1_el1=0
id_aa64dfr0_el1=1052678
id_aa64dfr1_el1=0
id_aa64isar0_el1=0
id_aa64isar1_el1=0
id_aa64mmfr0_el1=15728642
id_aa64mmfr1_el1=0
id_aa64pfr0_el1=17
id_aa64pfr1_el1=0
id_isar0=34607377
id_isar1=34677009
id_isar2=555950401
id_isar3=17899825
id_isar4=268501314
id_isar5=0
id_mmfr0=270536963
id_mmfr1=0
id_mmfr2=19070976
id_mmfr3=34611729
id_pfr0=49
id_pfr1=4113
midr=1091551472
system=system

[system.cpu0.istage2_mmu]
type=ArmStage2MMU
children=stage2_tlb
eventq_index=0
stage2_tlb=system.cpu0.istage2_mmu.stage2_tlb
tlb=system.cpu0.itb

[system.cpu0.istage2_mmu.stage2_tlb]
type=ArmTLB
children=walker
eventq_index=0
is_stage2=true
size=32
walker=system.cpu0.istage2_mmu.stage2_tlb.walker

[system.cpu0.istage2_mmu.stage2_tlb.walker]
type=ArmTableWalker
clk_domain=system.cpu_clk_domain
eventq_index=0
is_stage2=true
num_squash_per_cycle=2
sys=system
port=system.membus.slave[5]

[system.cpu0.itb]
type=ArmTLB
children=walker
eventq_index=0
is_stage2=false
size=64
walker=system.cpu0.itb.walker

[system.cpu0.itb.walker]
type=ArmTableWalker
clk_domain=system.cpu_clk_domain
eventq_index=0
is_stage2=false
num_squash_per_cycle=2
sys=system
port=system.membus.slave[3]

[system.cpu0.tracer]
type=ExeTracer
eventq_index=0

[system.cpu0.workload]
type=LiveProcess
cmd=./main_isp main_isp.cpp
cwd=/home/choim/s4sim/example/pagerank-master
egid=100
env=
errout=cerr
euid=100
eventq_index=0
executable=./main_isp
gid=100
input=cin
max_stack_size=67108864
output=output.txt
pid=100
ppid=99
simpoint=0
system=system
uid=100
useArchPT=false

[system.cpu1]
type=AtomicSimpleCPU
children=dstage2_mmu dtb interrupts isa istage2_mmu itb tracer
branchPred=Null
checker=Null
clk_domain=system.cpu_clk_domain
cpu_id=1
do_checkpoint_insts=true
do_quiesce=true
do_statistics_insts=true
dstage2_mmu=system.cpu1.dstage2_mmu
dtb=system.cpu1.dtb
eventq_index=0
fastmem=false
function_trace=false
function_trace_start=0
interrupts=system.cpu1.interrupts
isa=system.cpu1.isa
istage2_mmu=system.cpu1.istage2_mmu
itb=system.cpu1.itb
max_insts_all_threads=0
max_insts_any_thread=0
max_loads_all_threads=0
max_loads_any_thread=0
numThreads=1
profile=0
progress_interval=0
simpoint_start_insts=
simulate_data_stalls=false
simulate_inst_stalls=false
socket_id=0
switched_out=false
system=system
tracer=system.cpu1.tracer
width=1
workload=system.cpu0.workload
dcache_port=system.membus.slave[8]
icache_port=system.membus.slave[7]

[system.cpu1.dstage2_mmu]
type=ArmStage2MMU
children=stage2_tlb
eventq_index=0
stage2_tlb=system.cpu1.dstage2_mmu.stage2_tlb
tlb=system.cpu1.dtb

[system.cpu1.dstage2_mmu.stage2_tlb]
type=ArmTLB
children=walker
eventq_index=0
is_stage2=true
size=32
walker=system.cpu1.dstage2_mmu.stage2_tlb.walker

[system.cpu1.dstage2_mmu.stage2_tlb.walker]
type=ArmTableWalker
clk_domain=system.cpu_clk_domain
eventq_index=0
is_stage2=true
num_squash_per_cycle=2
sys=system
port=system.membus.slave[12]

[system.cpu1.dtb]
type=ArmTLB
children=walker
eventq_index=0
is_stage2=false
size=64
walker=system.cpu1.dtb.walker

[system.cpu1.dtb.walker]
type=ArmTableWalker
clk_domain=system.cpu_clk_domain
eventq_index=0
is_stage2=false
num_squash_per_cycle=2
sys=system
port=system.membus.slave[10]

[system.cpu1.interrupts]
type=ArmInterrupts
eventq_index=0

[system.cpu1.isa]
type=ArmISA
eventq_index=0
fpsid=1090793632
id_aa64afr0_el1=0
id_aa64afr1_el1=0
id_aa64dfr0_el1=1052678
id_aa64dfr1_el1=0
id_aa64isar0_el1=0
id_aa64isar1_el1=0
id_aa64mmfr0_el1=15728642
id_aa64mmfr1_el1=0
id_aa64pfr0_el1=17
id_aa64pfr1_el1=0
id_isar0=34607377
id_isar1=34677009
id_isar2=555950401
id_isar3=17899825
id_isar4=268501314
id_isar5=0
id_mmfr0=270536963
id_mmfr1=0
id_mmfr2=19070976
id_mmfr3=34611729
id_pfr0=49
id_pfr1=4113
midr=1091551472
system=system

[system.cpu1.istage2_mmu]
type=ArmStage2MMU
children=stage2_tlb
eventq_index=0
stage2_tlb=system.cpu1.istage2_mmu.stage2_tlb
tlb=system.cpu1.itb

[system.cpu1.istage2_mmu.stage2_tlb]
type=ArmTLB
children=walker
eventq_index=0
is_stage2=true
size=32
walker=system.cpu1.istage2_mmu.stage2_tlb.walker

[system.cpu1.istage2_mmu.stage2_tlb.walker]
type=ArmTableWalker
clk_domain=system.cpu_clk_domain
eventq_index=0
is_stage2=true
num_squash_per_cycle=2
sys=system
port=system.membus.slave[11]

[system.cpu1.itb]
type=ArmTLB
children=walker
eventq_index=0
is_stage2=false
size=64
walker=system.cpu1.itb.walker

[system.cpu1.itb.walker]
type=ArmTableWalker
clk_domain=system.cpu_clk_domain
eventq_index=0
is_stage2=false
num_squash_per_cycle=2
sys=system
port=system.membus.slave[9]

[system.cpu1.tracer]
type=ExeTracer
eventq_index=0

[system.cpu2]
type=AtomicSimpleCPU
children=dstage2_mmu dtb interrupts isa istage2_mmu itb tracer
branchPred=Null
checker=Null
clk_domain=system.cpu_clk_domain
cpu_id=2
do_checkpoint_insts=true
do_quiesce=true
do_statistics_insts=true
dstage2_mmu=system.cpu2.dstage2_mmu
dtb=system.cpu2.dtb
eventq_index=0
fastmem=false
function_trace=false
function_trace_start=0
interrupts=system.cpu2.interrupts
isa=system.cpu2.isa
istage2_mmu=system.cpu2.istage2_mmu
itb=system.cpu2.itb
max_insts_all_threads=0
max_insts_any_thread=0
max_loads_all_threads=0
max_loads_any_thread=0
numThreads=1
profile=0
progress_interval=0
simpoint_start_insts=
simulate_data_stalls=false
simulate_inst_stalls=false
socket_id=0
switched_out=false
system=system
tracer=system.cpu2.tracer
width=1
workload=system.cpu0.workload
dcache_port=system.membus.slave[14]
icache_port=system.membus.slave[13]

[system.cpu2.dstage2_mmu]
type=ArmStage2MMU
children=stage2_tlb
eventq_index=0
stage2_tlb=system.cpu2.dstage2_mmu.stage2_tlb
tlb=system.cpu2.dtb

[system.cpu2.dstage2_mmu.stage2_tlb]
type=ArmTLB
children=walker
eventq_index=0
is_stage2=true
size=32
walker=system.cpu2.dstage2_mmu.stage2_tlb.walker

[system.cpu2.dstage2_mmu.stage2_tlb.walker]
type=ArmTableWalker
clk_domain=system.cpu_clk_domain
eventq_index=0
is_stage2=true
num_squash_per_cycle=2
sys=system
port=system.membus.slave[18]

[system.cpu2.dtb]
type=ArmTLB
children=walker
eventq_index=0
is_stage2=false
size=64
walker=system.cpu2.dtb.walker

[system.cpu2.dtb.walker]
type=ArmTableWalker
clk_domain=system.cpu_clk_domain
eventq_index=0
is_stage2=false
num_squash_per_cycle=2
sys=system
port=system.membus.slave[16]

[system.cpu2.interrupts]
type=ArmInterrupts
eventq_index=0

[system.cpu2.isa]
type=ArmISA
eventq_index=0
fpsid=1090793632
id_aa64afr0_el1=0
id_aa64afr1_el1=0
id_aa64dfr0_el1=1052678
id_aa64dfr1_el1=0
id_aa64isar0_el1=0
id_aa64isar1_el1=0
id_aa64mmfr0_el1=15728642
id_aa64mmfr1_el1=0
id_aa64pfr0_el1=17
id_aa64pfr1_el1=0
id_isar0=34607377
id_isar1=34677009
id_isar2=555950401
id_isar3=17899825
id_isar4=268501314
id_isar5=0
id_mmfr0=270536963
id_mmfr1=0
id_mmfr2=19070976
id_mmfr3=34611729
id_pfr0=49
id_pfr1=4113
midr=1091551472
system=system

[system.cpu2.istage2_mmu]
type=ArmStage2MMU
children=stage2_tlb
eventq_index=0
stage2_tlb=system.cpu2.istage2_mmu.stage2_tlb
tlb=system.cpu2.itb

[system.cpu2.istage2_mmu.stage2_tlb]
type=ArmTLB
children=walker
eventq_index=0
is_stage2=true
size=32
walker=system.cpu2.istage2_mmu.stage2_tlb.walker

[system.cpu2.istage2_mmu.stage2_tlb.walker]
type=ArmTableWalker
clk_domain=system.cpu_clk_domain
eventq_index=0
is_stage2=true
num_squash_per_cycle=2
sys=system
port=system.membus.slave[17]

[system.cpu2.itb]
type=ArmTLB
children=walker
eventq_index=0
is_stage2=false
size=64
walker=system.cpu2.itb.walker

[system.cpu2.itb.walker]
type=ArmTableWalker
clk_domain=system.cpu_clk_domain
eventq_index=0
is_stage2=false
num_squash_per_cycle=2
sys=system
port=system.membus.slave[15]

[system.cpu2.tracer]
type=ExeTracer
eventq_index=0

[system.cpu3]
type=AtomicSimpleCPU
children=dstage2_mmu dtb interrupts isa istage2_mmu itb tracer
branchPred=Null
checker=Null
clk_domain=system.cpu_clk_domain
cpu_id=3
do_checkpoint_insts=true
do_quiesce=true
do_statistics_insts=true
dstage2_mmu=system.cpu3.dstage2_mmu
dtb=system.cpu3.dtb
eventq_index=0
fastmem=false
function_trace=false
function_trace_start=0
interrupts=system.cpu3.interrupts
isa=system.cpu3.isa
istage2_mmu=system.cpu3.istage2_mmu
itb=system.cpu3.itb
max_insts_all_threads=0
max_insts_any_thread=0
max_loads_all_threads=0
max_loads_any_thread=0
numThreads=1
profile=0
progress_interval=0
simpoint_start_insts=
simulate_data_stalls=false
simulate_inst_stalls=false
socket_id=0
switched_out=false
system=system
tracer=system.cpu3.tracer
width=1
workload=system.cpu0.workload
dcache_port=system.membus.slave[20]
icache_port=system.membus.slave[19]

[system.cpu3.dstage2_mmu]
type=ArmStage2MMU
children=stage2_tlb
eventq_index=0
stage2_tlb=system.cpu3.dstage2_mmu.stage2_tlb
tlb=system.cpu3.dtb

[system.cpu3.dstage2_mmu.stage2_tlb]
type=ArmTLB
children=walker
eventq_index=0
is_stage2=true
size=32
walker=system.cpu3.dstage2_mmu.stage2_tlb.walker

[system.cpu3.dstage2_mmu.stage2_tlb.walker]
type=ArmTableWalker
clk_domain=system.cpu_clk_domain
eventq_index=0
is_stage2=true
num_squash_per_cycle=2
sys=system
port=system.membus.slave[24]

[system.cpu3.dtb]
type=ArmTLB
children=walker
eventq_index=0
is_stage2=false
size=64
walker=system.cpu3.dtb.walker

[system.cpu3.dtb.walker]
type=ArmTableWalker
clk_domain=system.cpu_clk_domain
eventq_index=0
is_stage2=false
num_squash_per_cycle=2
sys=system
port=system.membus.slave[22]

[system.cpu3.interrupts]
type=ArmInterrupts
eventq_index=0

[system.cpu3.isa]
type=ArmISA
eventq_index=0
fpsid=1090793632
id_aa64afr0_el1=0
id_aa64afr1_el1=0
id_aa64dfr0_el1=1052678
id_aa64dfr1_el1=0
id_aa64isar0_el1=0
id_aa64isar1_el1=0
id_aa64mmfr0_el1=15728642
id_aa64mmfr1_el1=0
id_aa64pfr0_el1=17
id_aa64pfr1_el1=0
id_isar0=34607377
id_isar1=34677009
id_isar2=555950401
id_isar3=17899825
id_isar4=268501314
id_isar5=0
id_mmfr0=270536963
id_mmfr1=0
id_mmfr2=19070976
id_mmfr3=34611729
id_pfr0=49
id_pfr1=4113
midr=1091551472
system=system

[system.cpu3.istage2_mmu]
type=ArmStage2MMU
children=stage2_tlb
eventq_index=0
stage2_tlb=system.cpu3.istage2_mmu.stage2_tlb
tlb=system.cpu3.itb

[system.cpu3.istage2_mmu.stage2_tlb]
type=ArmTLB
children=walker
eventq_index=0
is_stage2=true
size=32
walker=system.cpu3.istage2_mmu.stage2_tlb.walker

[system.cpu3.istage2_mmu.stage2_tlb.walker]
type=ArmTableWalker
clk_domain=system.cpu_clk_domain
eventq_index=0
is_stage2=true
num_squash_per_cycle=2
sys=system
port=system.membus.slave[23]

[system.cpu3.itb]
type=ArmTLB
children=walker
eventq_index=0
is_stage2=false
size=64
walker=system.cpu3.itb.walker

[system.cpu3.itb.walker]
type=ArmTableWalker
clk_domain=system.cpu_clk_domain
eventq_index=0
is_stage2=false
num_squash_per_cycle=2
sys=system
port=system.membus.slave[21]

[system.cpu3.tracer]
type=ExeTracer
eventq_index=0

[system.cpu_clk_domain]
type=SrcClockDomain
clock=500
domain_id=-1
eventq_index=0
init_perf_level=0
voltage_domain=system.cpu_voltage_domain

[system.cpu_voltage_domain]
type=VoltageDomain
eventq_index=0
voltage=1.000000

[system.dvfs_handler]
type=DVFSHandler
domains=
enable=false
eventq_index=0
sys_clk_domain=system.clk_domain
transition_latency=100000000

[system.mem_ctrls]
type=DRAMCtrl
IDD0=0.075000
IDD02=0.000000
IDD2N=0.050000
IDD2N2=0.000000
IDD2P0=0.000000
IDD2P02=0.000000
IDD2P1=0.000000
IDD2P12=0.000000
IDD3N=0.057000
IDD3N2=0.000000
IDD3P0=0.000000
IDD3P02=0.000000
IDD3P1=0.000000
IDD3P12=0.000000
IDD4R=0.187000
IDD4R2=0.000000
IDD4W=0.165000
IDD4W2=0.000000
IDD5=0.220000
IDD52=0.000000
IDD6=0.000000
IDD62=0.000000
VDD=1.500000
VDD2=0.000000
activation_limit=4
addr_mapping=RoRaBaChCo
bank_groups_per_rank=0
banks_per_rank=8
burst_length=8
channels=1
clk_domain=system.clk_domain
conf_table_reported=true
device_bus_width=8
device_rowbuffer_size=1024
devices_per_rank=8
dll=true
eventq_index=0
in_addr_map=true
max_accesses_per_row=16
mem_sched_policy=frfcfs
min_writes_per_switch=16
null=false
page_policy=open_adaptive
range=0:536870911
ranks_per_channel=2
read_buffer_size=32
static_backend_latency=10000
static_frontend_latency=10000
tBURST=5000
tCCD_L=0
tCK=1250
tCL=13750
tCS=2500
tRAS=35000
tRCD=13750
tREFI=7800000
tRFC=260000
tRP=13750
tRRD=6000
tRRD_L=0
tRTP=7500
tRTW=2500
tWR=15000
tWTR=7500
tXAW=30000
tXP=0
tXPDLL=0
tXS=0
tXSDLL=0
write_buffer_size=64
write_high_thresh_perc=85
write_low_thresh_perc=50
port=system.membus.master[0]

[system.membus]
type=CoherentXBar
clk_domain=system.clk_domain
eventq_index=0
header_cycles=1
snoop_filter=Null
system=system
use_default_range=false
width=8
master=system.mem_ctrls.port
slave=system.system_port system.cpu0.icache_port system.cpu0.dcache_port system.cpu0.itb.walker.port system.cpu0.dtb.walker.port system.cpu0.istage2_mmu.stage2_tlb.walker.port system.cpu0.dstage2_mmu.stage2_tlb.walker.port system.cpu1.icache_port system.cpu1.dcache_port system.cpu1.itb.walker.port system.cpu1.dtb.walker.port system.cpu1.istage2_mmu.stage2_tlb.walker.port system.cpu1.dstage2_mmu.stage2_tlb.walker.port system.cpu2.icache_port system.cpu2.dcache_port system.cpu2.itb.walker.port system.cpu2.dtb.walker.port system.cpu2.istage2_mmu.stage2_tlb.walker.port system.cpu2.dstage2_mmu.stage2_tlb.walker.port system.cpu3.icache_port system.cpu3.dcache_port system.cpu3.itb.walker.port system.cpu3.dtb.walker.port system.cpu3.istage2_mmu.stage2_tlb.walker.port system.cpu3.dstage2_mmu.stage2_tlb.walker.port

[system.voltage_domain]
type=VoltageDomain
eventq_index=0
voltage=1.000000

